
*** ChampSim Multicore Out-of-Order Simulator ***

Warmup Instructions: 1000000
Simulation Instructions: 10000000
Number of CPUs: 1
LLC sets: 2048
LLC ways: 16
Off-chip DRAM Size: 4096 MB Channels: 1 Width: 64-bit Data Rate: 800 MT/s

CPU 0 runs /home/diksha/ChampSim/ChampSim-master/dpc3_traces/600.perlbench_s-210B.champsimtrace.xz
CPU 0 Bimodal branch predictor
LLC Next Line Prefetcher

Warmup complete CPU 0 instructions: 1000001 cycles: 401527 (Simulation time: 0 hr 0 min 3 sec) 

Caught signal: 2
